Test file.
New line.
Other new line.
Other one.
One more.
And other.
New line.


